02
  --CCDC--041320    3D                              

 26 29  0  0  0  0  0  0  0  0999 V2000
   15.8038    1.8998    2.0109 C      0
   16.7181    2.1573    2.0607 H      0
   15.1249    1.5843    3.1538 C      0
   15.5960    1.6074    3.9773 H      0
   13.8396    1.2474    3.1738 C      0
   13.1406    1.1356    1.9341 C      0
   11.7909    0.7735    1.9233 C      0
   11.0737    0.4681    3.1523 C      0
    9.7119    0.1004    3.0340 C      0
    9.2206   -0.0981    3.8224 H      0
    9.0975    0.0143    1.8542 C      0
    8.1787   -0.2294    1.8288 H      0
    9.7603    0.2653    0.6606 C      0
    9.3104    0.1503   -0.1680 H      0
   11.0737    0.6854    0.6805 C      0
   11.7949    1.0101   -0.5300 C      0
   11.3525    0.9430   -1.3686 H      0
   13.0741    1.4037   -0.4900 C      0
   13.4974    1.6526   -1.3034 H      0
   13.8154    1.4661    0.6990 C      0
   15.1692    1.8539    0.7773 C      0
   15.6467    2.0813   -0.0117 H      0
   11.7989    0.6237    4.3398 C      0
   11.3287    0.4989    5.1559 H      0
   13.0721    0.9248    4.4212 C      0
   13.5066    0.9435    5.2657 H      0
  1  2  1
  3  1  4
  4  3  1
  5  3  4
  6  5  4
  7  6  4
  8  7  4
  9  8  4
 10  9  1
 11  9  4
 12 11  1
 13 11  4
 14 13  1
 15  7  4
 16 15  4
 17 16  1
 18 16  4
 19 18  1
 20  6  4
 21  1  4
 22 21  1
 23  8  4
 24 23  1
 25  5  4
 26 25  1
 13 15  4
 18 20  4
 20 21  4
 23 25  4
M  END
$$$$
