02
  --CCDC--041320    3D                              

 20 20  0  0  0  0  0  0  0  0999 V2000
    5.9657    9.4337    8.2824 C      0
    6.0678    9.2443    6.9139 C      0
    5.8112    8.4325    6.5406 H      0
    6.5471   10.2522    6.0997 C      0
    6.6067   10.1193    5.1816 H      0
    6.9387   11.4614    6.6506 C      0
    6.8820   11.6296    8.0250 C      0
    7.1768   12.4274    8.4031 H      0
    6.3929   10.6266    8.8419 C      0
    6.3507   10.7518    9.7621 H      0
    7.1136   12.8399    4.5891 C      0
    7.6975   14.1160    4.0570 C      0
    8.3105   13.9159    3.3454 H      0
    8.1626   14.5738    4.7617 H      0
    6.9929   14.6750    3.7235 H      0
    7.4287   12.5480    5.8645 N      0
    5.4285    8.4255    9.0347 O      0
    6.3951   12.1218    3.8983 O      0
    7.8927   13.1414    6.3298 H      0
    5.4777    8.6447    9.8690 H      0
  1  2  4
  2  3  1
  4  2  4
  5  4  1
  6  4  4
  7  6  4
  8  7  1
  9  1  4
 10  9  1
 11 12  1
 12 13  1
 14 12  1
 15 12  1
 16  6  1
 17  1  1
 18 11  2
 19 16  1
 20 17  1
  7  9  4
 11 16  1
M  END
$$$$
