01
  --CCDC--041320    3D                              

 44 47  0  0  0  0  0  0  0  0999 V2000
    1.3654    2.1364    8.1948 C      0
    2.4989    1.1582    7.8131 C      0
    2.7972    1.2128    6.3164 C      0
    1.0666    1.9815    9.6824 C      0
    1.8211    1.6533    5.3997 C      0
    2.2897    2.2487   10.5826 C      0
    2.0913    1.6525    4.0251 C      0
    0.1515    1.8493    7.3123 C      0
    3.3909    1.2481   10.2114 C      0
    3.6202    1.2260    2.1976 O      0
    4.0246    0.7728    5.7964 C      0
    3.3248    1.2220    3.5371 C      0
    2.3868    2.5167   13.0849 O      0
    3.7396    1.3367    8.7124 C      0
    0.4714    2.1719    5.8542 C      0
    1.6354    2.0387   11.9643 C      0
    4.2974    0.7723    4.4287 C      0
    2.8233    3.6831   10.4800 C      0
   -0.0488    2.8212   10.3242 C      0
    0.2404    2.7080   11.8436 C      0
   -0.0831    0.8867    7.4246 H      0
    2.1274    0.2561    8.0096 H      0
   -0.2163    1.7802    5.2571 H      0
    0.4645    3.0972    5.7541 H      0
    4.7420    0.4631    6.3873 H      0
    0.0042    3.7575   10.0259 H      0
   -0.4589    2.1332   12.3347 H      0
    1.6575    3.0065    8.0232 H      0
    4.2000    1.3537   10.7360 H      0
    5.1363    0.4662    4.0922 H      0
    3.6257    3.7497   11.0768 H      0
    0.8669    1.0427    9.8487 H      0
   -0.6246    2.3284    7.5956 H      0
    4.3898    0.6295    8.5809 H      0
    1.5221    1.1133   12.1377 H      0
    4.1666    2.1948    8.5065 H      0
    3.0934    3.8921    9.6132 H      0
    2.4517    3.2995   13.0758 H      0
    1.4170    1.9571    3.4242 H      0
    2.2029    4.2653   10.7782 H      0
    0.2351    3.6064   12.2703 H      0
    3.0924    0.3631   10.4126 H      0
   -0.9558    2.4668   10.0569 H      0
    3.0886    1.6443    1.7524 H      0
  1  2  1
  2  3  1
  3  5  4
  4  1  1
  5  7  4
  6  4  1
  7 12  4
  8  1  1
  9  6  1
 10 12  1
 11  3  4
 12 17  4
 13 16  1
 14  2  1
 15  5  1
 16  6  1
 17 11  4
 18  6  1
 19  4  1
 20 16  1
 21  8  1
 22  2  1
 23 15  1
 24 15  1
 25 11  1
 26 19  1
 27 20  1
 28  1  1
 29  9  1
 30 17  1
 31 18  1
 32  4  1
 33  8  1
 34 14  1
 35 16  1
 36 14  1
 37 18  1
 38 13  1
 39  7  1
 40 18  1
 41 20  1
 42  9  1
 43 19  1
 44 10  1
  8 15  1
  9 14  1
 19 20  1
M  END
$$$$
