01
  --CCDC--041320    3D                              

 39 42  0  0  0  0  0  0  0  0999 V2000
    2.0380   -2.9328    6.7192 O      0
   -0.0907   -3.2717    7.7870 C      0
   -0.0516   -5.6974    7.7281 O      0
   -0.8744   -2.1267    7.6492 C      0
   -0.4773   -1.2743    7.7841 H      0
    2.9310    1.0772   11.4273 O      0
   -2.2105   -2.2029    7.3230 C      0
   -2.7253   -1.4088    7.2350 H      0
   -2.8001   -3.4332    7.1252 C      0
   -3.7174   -3.4853    6.8840 H      0
   -2.0657   -4.5833    7.2764 C      0
   -2.4715   -5.4336    7.1560 H      0
   -0.7218   -4.4857    7.6069 C      0
    1.9202   -4.5271    8.5220 C      0
    3.1703   -4.6578    9.1200 C      0
    3.6841   -3.8787    9.2960 H      0
    3.6789   -5.8912    9.4620 C      0
    4.5390   -5.9555    9.8602 H      0
    2.9454   -7.0283    9.2291 C      0
    3.3010   -7.8781    9.4615 H      0
    1.7006   -6.9389    8.6620 C      0
    1.1854   -7.7224    8.5100 H      0
    1.2022   -5.6950    8.3128 C      0
    1.4112   -3.1916    8.0041 C      0
    1.8056   -2.0387    8.9160 C      0
    2.6163   -1.0054    8.4860 C      0
    2.9359   -0.9959    7.5910 H      0
    2.9645    0.0151    9.3538 C      0
    3.5165    0.7250    9.0465 H      0
    2.5194    0.0137   10.6564 C      0
    1.7018   -1.0013   11.0984 C      0
    1.3821   -1.0068   11.9927 H      0
    1.3511   -2.0140   10.2205 C      0
    0.7820   -2.7119   10.5246 H      0
    2.4409    1.1435   12.7607 C      0
    1.4669    1.2490   12.7462 H      0
    2.8458    1.9079   13.2200 H      0
    2.6718    0.3175   13.2351 H      0
    1.8156   -3.6339    6.0865 H      0
  1 24  1
  2  4  4
  3 13  1
  4  5  1
  6 30  1
  7  4  4
  8  7  1
  9  7  4
 10  9  1
 11  9  4
 12 11  1
 13  2  4
 14 15  4
 15 16  1
 17 15  4
 18 17  1
 19 17  4
 20 19  1
 21 19  4
 22 21  1
 23  3  1
 24  2  1
 25 24  1
 26 25  4
 27 26  1
 28 26  4
 29 28  1
 30 28  4
 31 30  4
 32 31  1
 33 25  4
 34 33  1
 35  6  1
 36 35  1
 37 35  1
 38 35  1
 39  1  1
 11 13  4
 14 23  4
 14 24  1
 21 23  4
 31 33  4
M  END
$$$$
