01
  --CCDC--041320    3D                              

 20 20  0  0  0  0  0  0  0  0999 V2000
    2.6588    1.2800    1.0510 F      0
    4.3184    5.7129    1.5379 F      0
    2.6997    1.2053    4.0747 N      0
    4.3328    5.0989    4.5058 N      0
    3.9565    4.3356    3.7369 C      0
    3.0430    2.1271    3.4905 C      0
    3.9077    4.6785    0.7907 C      0
    3.4953    3.3241    2.8334 C      0
    3.4826    3.4768    1.4550 C      0
    3.0642    2.4522    0.5452 C      0
    4.3030    6.0012   -1.0510 F      0
    2.6434    1.5683   -1.5379 F      0
    4.2621    6.0759   -4.0747 N      0
    2.6291    2.1823   -4.5058 N      0
    3.0054    2.9456   -3.7369 C      0
    3.9188    5.1541   -3.4905 C      0
    3.0541    2.6027   -0.7907 C      0
    3.4665    3.9572   -2.8334 C      0
    3.4792    3.8044   -1.4550 C      0
    3.8976    4.8290   -0.5452 C      0
  1 10  1
  2  7  1
  3  6  3
  4  5  3
  5  8  1
  6  8  1
  7  9  1
  8  9  2
  9 10  1
 10 17  2
 11 20  1
 12 17  1
 13 16  3
 14 15  3
 15 18  1
 16 18  1
 17 19  1
 18 19  2
 19 20  1
 20  7  2
M  END
$$$$
