03
  --CCDC--041320    3D                              

 12 12  0  0  0  0  0  0  0  0999 V2000
    2.6331    3.2511    9.9941 Cl     0
    4.7955    1.6446    8.8357 F      0
    4.9735   -1.0557    8.8370 F      0
    2.9845   -2.5449    9.9505 F      0
    0.8122   -1.3363   11.1074 F      0
    0.6846    1.3819   11.1341 F      0
    2.7367    1.5629    9.9821 C      0
    3.8210    0.9245    9.4023 C      0
    3.9053   -0.4488    9.3963 C      0
    2.9025   -1.2075    9.9611 C      0
    1.8126   -0.5875   10.5457 C      0
    1.7373    0.7898   10.5590 C      0
  1  7  1
  2  8  1
  3  9  1
  4 10  1
  5 11  1
  6 12  1
  7  8  4
  8  9  4
  9 10  4
 10 11  4
 11 12  4
 12  7  4
M  END
$$$$
