02
  --CCDC--041320    3D                              

 14 14  0  0  0  0  0  0  0  0999 V2000
    2.5213    1.5990    2.2117 C      0
    2.7689    0.7788    1.0500 C      0
    2.1038   -0.0402   -0.9478 C      0
    1.1194   -0.0988   -2.0088 C      0
    2.3767    2.2394    3.1492 N      0
    1.8274    0.7384    0.1008 N      0
    0.3637   -0.1515   -2.8631 N      0
    3.5443   -1.5990   -2.2117 C      0
    3.2967   -0.7788   -1.0500 C      0
    3.9618    0.0402    0.9478 C      0
    4.9462    0.0988    2.0088 C      0
    3.6889   -2.2394   -3.1492 N      0
    4.2382   -0.7384   -0.1008 N      0
    5.7019    0.1515    2.8631 N      0
  1  2  1
  2  6  4
  3  4  1
  4  7  3
  5  1  3
  6  3  4
  8  9  1
  9  3  4
 10  2  4
 11 10  1
 12  8  3
 13  9  4
 14 11  3
 10 13  4
M  END
$$$$
