01
  --CCDC--041420    3D                              

 78 86  0  0  0  0  0  0  0  0999 V2000
    3.9451    4.3469    1.6630 N      0
    3.3897    3.2826    2.3200 C      0
    1.5237    4.0252    0.0506 N      0
    2.1707    4.5916    0.0775 H      0
    4.2579    2.8473    3.3873 C      0
    4.0970    2.1480    3.9797 H      0
    5.3384    3.6377    3.3668 C      0
    6.0747    3.5858    3.9312 H      0
    5.1359    4.5897    2.2920 C      0
    2.1770    2.6620    2.0033 C      0
    1.3445    2.9910    0.9338 C      0
    0.1577    2.3103    0.5353 C      0
   -0.2117    1.5684    0.9564 H      0
   -0.3412    2.9306   -0.5622 C      0
   -1.1103    2.6864   -1.0253 H      0
    0.5182    4.0212   -0.8843 C      0
    6.0548    5.6006    1.9613 C      0
    1.7151    1.5360    2.8822 C      0
    0.8895    1.7757    3.9506 C      0
    0.6150    2.6453    4.1326 H      0
    0.4607    0.7398    4.7616 C      0
   -0.0862    0.9197    5.4919 H      0
    0.8335   -0.5398    4.4977 C      0
    0.5182   -1.2380    5.0244 H      0
    1.6729   -0.7925    3.4552 C      0
    1.9516   -1.6631    3.2839 H      0
    2.1114    0.2423    2.6528 C      0
    2.6848    0.0594    1.9441 H      0
    7.2566    5.7642    2.8305 C      0
    7.1247    6.2037    4.1402 C      0
    6.2815    6.4059    4.4741 H      0
    8.2338    6.3435    4.9533 C      0
    8.1335    6.6376    5.8301 H      0
    9.4810    6.0494    4.4697 C      0
   10.2259    6.1398    5.0190 H      0
    9.6309    5.6222    3.1773 C      0
   10.4780    5.4277    2.8477 H      0
    8.5253    5.4803    2.3641 C      0
    8.6359    5.1893    1.4874 H      0
    5.9271    6.4841    0.8843 C      0
    4.9217    6.4801   -0.0506 N      0
    4.2746    5.9137   -0.0775 H      0
    5.1008    7.5143   -0.9338 C      0
    4.2683    7.8433   -2.0033 C      0
    3.0556    7.2227   -2.3200 C      0
    2.5003    6.1584   -1.6630 N      0
    1.3094    5.9156   -2.2920 C      0
    1.1069    6.8676   -3.3668 C      0
    2.1874    7.6580   -3.3873 C      0
    2.3483    8.3572   -3.9797 H      0
    0.3706    6.9195   -3.9312 H      0
    0.3905    4.9047   -1.9613 C      0
   -0.8113    4.7411   -2.8305 C      0
   -0.6794    4.3016   -4.1402 C      0
    0.1638    4.0994   -4.4741 H      0
   -1.7884    4.1618   -4.9533 C      0
   -1.6881    3.8677   -5.8301 H      0
   -3.0357    4.4559   -4.4697 C      0
   -3.7806    4.3655   -5.0190 H      0
   -3.1856    4.8831   -3.1773 C      0
   -4.0327    5.0776   -2.8477 H      0
   -2.0799    5.0250   -2.3641 C      0
   -2.1906    5.3160   -1.4874 H      0
    4.7302    8.9693   -2.8822 C      0
    5.5558    8.7296   -3.9506 C      0
    5.8303    7.8600   -4.1326 H      0
    5.9846    9.7655   -4.7616 C      0
    6.5316    9.5856   -5.4919 H      0
    5.6118   11.0451   -4.4977 C      0
    5.9271   11.7433   -5.0244 H      0
    4.7724   11.2978   -3.4552 C      0
    4.4937   12.1684   -3.2839 H      0
    4.3339   10.2630   -2.6528 C      0
    3.7605   10.4459   -1.9441 H      0
    6.2877    8.1950   -0.5353 C      0
    6.6571    8.9369   -0.9564 H      0
    6.7865    7.5747    0.5622 C      0
    7.5556    7.8189    1.0253 H      0
  1  2  2
  2  5  1
  3  4  1
  5  6  1
  7  5  2
  8  7  1
  9  1  1
 10  2  1
 11  3  1
 12 11  1
 13 12  1
 14 12  2
 15 14  1
 16  3  1
 17  9  2
 18 10  1
 19 18  4
 20 19  1
 21 19  4
 22 21  1
 23 21  4
 24 23  1
 25 23  4
 26 25  1
 27 18  4
 28 27  1
 29 17  1
 30 29  4
 31 30  1
 32 30  4
 33 32  1
 34 32  4
 35 34  1
 36 34  4
 37 36  1
 38 29  4
 39 38  1
 40 17  1
 41 40  1
 42 41  1
 43 41  1
 44 43  1
 45 44  2
 46 45  1
 47 46  2
 48 47  1
 49 45  1
 50 49  1
 51 48  1
 52 16  2
 53 52  1
 54 53  4
 55 54  1
 56 54  4
 57 56  1
 58 56  4
 59 58  1
 60 58  4
 61 60  1
 62 53  4
 63 62  1
 64 44  1
 65 64  4
 66 65  1
 67 65  4
 68 67  1
 69 67  4
 70 69  1
 71 69  4
 72 71  1
 73 64  4
 74 73  1
 75 43  2
 76 75  1
 77 40  2
 78 77  1
  7  9  1
 10 11  2
 14 16  1
 25 27  4
 36 38  4
 47 52  1
 48 49  2
 60 62  4
 71 73  4
 75 77  1
M  END
$$$$
