02
  --CCDC--041320    3D                              

 30 32  0  0  0  0  0  0  0  0999 V2000
    3.0440    3.0669    2.9234 O      0
    3.9704    1.3943    4.1454 N      0
    3.1719    0.9943    2.0062 N      0
    4.4007    2.3373    5.1432 C      0
    5.7354    2.7655    5.1515 C      0
    3.3907    1.8763    2.9962 C      0
    6.4001   -1.4074    3.8810 C      0
    7.2883   -1.5534    3.6485 H      0
    4.5378    0.0766    4.2092 C      0
    6.8133    1.0271    3.6742 C      0
    7.5128    0.8777    3.0794 H      0
    3.7295   -1.0092    4.5239 C      0
    2.8329   -0.8752    4.7323 H      0
    5.9041   -0.0972    3.9090 C      0
    3.4732    2.8285    6.0602 C      0
    2.5978    2.5150    6.0555 H      0
    4.2582   -2.2925    4.5266 C      0
    3.7207   -3.0176    4.7509 H      0
    5.5929   -2.4910    4.1941 C      0
    5.9451   -3.3513    4.1818 H      0
    6.7452    2.2492    4.2247 C      0
    7.4226    2.8418    3.9883 H      0
    6.0867    3.7519    6.0872 C      0
    6.9608    4.0692    6.1014 H      0
    5.1740    4.2640    6.9846 C      0
    5.4333    4.9209    7.5895 H      0
    3.8688    3.7954    6.9843 C      0
    3.2557    4.1266    7.6009 H      0
    3.5603    0.0821    2.0214 H      0
    2.9620    1.3251    1.2329 H      0
  1  6  2
  2  4  1
  3  6  1
  4  5  4
  5 21  1
  6  2  1
  7  8  1
  9  2  1
 10 11  1
 12  9  4
 13 12  1
 14  7  4
 15  4  4
 16 15  1
 17 12  4
 18 17  1
 19  7  4
 20 19  1
 21 10  2
 22 21  1
 23  5  4
 24 23  1
 25 23  4
 26 25  1
 27 15  4
 28 27  1
 29  3  1
 30  3  1
  9 14  4
 10 14  1
 17 19  4
 25 27  4
M  END
$$$$
