01
  --CCDC--041320    3D                              

 25 26  0  0  0  0  0  0  0  0999 V2000
    2.8713    6.0345    1.1689 Cl     0
    7.0200    1.5699    2.5278 S      0
    5.7316    6.8102    2.6036 S      0
    7.6777    1.8473    3.7687 O      0
    7.8305    1.3683    1.3581 O      0
    6.9812    6.6752    3.2972 O      0
    5.6789    7.6534    1.4423 O      0
    6.0850    0.2394    2.7155 N      0
    4.1794    1.1534    1.5645 N      0
    4.6525    7.3841    3.6457 N      0
    5.1528    0.0814    1.5898 C      0
    5.6609    0.0781    0.7402 H      0
    4.6837   -0.7871    1.6699 H      0
    4.5547    2.4483    1.6968 C      0
    3.6622    3.4995    1.3914 C      0
    2.8076    3.3003    1.0282 H      0
    4.0173    4.8074    1.6146 C      0
    5.2582    5.1581    2.1749 C      0
    6.1585    4.1393    2.4401 C      0
    7.0117    4.3509    2.8017 H      0
    5.8329    2.8149    2.1854 C      0
    4.0321    7.7375    3.2728 H      0
    5.7251    0.3017    3.4446 H      0
    3.4125    0.9816    1.3642 H      0
    4.4497    6.8254    4.2821 H      0
  1 17  1
  2  4  2
  3  6  2
  5  2  2
  7  3  2
  8  2  1
  9 11  1
 10  3  1
 11  8  1
 12 11  1
 13 11  1
 14  9  1
 15 14  4
 16 15  1
 17 15  4
 18  3  1
 19 18  4
 20 19  1
 21  2  1
 22 10  1
 23  8  1
 24  9  1
 25 10  1
 14 21  4
 17 18  4
 19 21  4
M  END
$$$$
