01
  --CCDC--041320    3D                              

 44 49  0  0  0  0  0  0  0  0999 V2000
    5.5959    0.6221   10.2373 C      0
    5.8347    2.4094   12.3865 N      0
    5.0253    0.2791   11.4803 C      0
    7.1784    3.7347   11.1325 O      0
    6.3106    1.8136   10.0532 C      0
    4.6457    0.9841   13.7081 O      0
    6.5003    2.7378   11.1916 C      0
    5.1317    1.2128   12.6246 C      0
    4.3363   -0.8942   11.6257 C      0
    3.9638   -1.1103   12.4502 H      0
    5.9357    5.2602   15.4741 N      0
    6.8533    2.1269    8.8314 C      0
    7.3217    2.9229    8.7210 H      0
    5.8911    3.3856   13.4520 C      0
    5.3508    4.6355   13.2505 C      0
    4.9635    4.8639   12.4366 H      0
    5.3993    5.5371   14.2891 C      0
    5.0381    6.3836   14.1554 H      0
    6.4712    3.0850   14.6564 C      0
    6.8569    2.2518   14.8075 H      0
    6.4649    4.0520   15.6378 C      0
    6.8520    3.8487   16.4585 H      0
    5.4436   -0.2676    9.1405 C      0
    5.2047   -2.0548    6.9912 N      0
    6.0141    0.0755    7.8974 C      0
    3.8610   -3.3801    8.2452 O      0
    4.7288   -1.4591    9.3246 C      0
    6.3938   -0.6296    5.6696 O      0
    4.5391   -2.3832    8.1861 C      0
    5.9077   -0.8582    6.7531 C      0
    6.7032    1.2487    7.7521 C      0
    7.0757    1.4649    6.9275 H      0
    5.1038   -4.9057    3.9036 N      0
    4.1862   -1.7724   10.5463 C      0
    3.7177   -2.5684   10.6568 H      0
    5.1483   -3.0311    5.9257 C      0
    5.6886   -4.2809    6.1272 C      0
    6.0759   -4.5093    6.9411 H      0
    5.6401   -5.1825    5.0886 C      0
    6.0013   -6.0290    5.2223 H      0
    4.5682   -2.7304    4.7214 C      0
    4.1825   -1.8972    4.5702 H      0
    4.5745   -3.6974    3.7399 C      0
    4.1874   -3.4942    2.9193 H      0
  1  3  4
  2  7  1
  3  8  1
  4  7  2
  5  1  4
  6  8  2
  7  5  1
  8  2  1
  9  3  4
 10  9  1
 11 17  4
 12  5  4
 13 12  1
 14  2  1
 15 14  4
 16 15  1
 17 15  4
 18 17  1
 19 14  4
 20 19  1
 21 11  4
 22 21  1
 23  1  4
 24 29  1
 25 23  4
 26 29  2
 27 23  4
 28 30  2
 29 27  1
 30 24  1
 31 12  4
 32 31  1
 33 39  4
 34  9  4
 35 34  1
 36 24  1
 37 36  4
 38 37  1
 39 37  4
 40 39  1
 41 36  4
 42 41  1
 43 33  4
 44 43  1
 19 21  4
 25 30  1
 25 31  4
 27 34  4
 41 43  4
M  END
$$$$
