02
  --CCDC--041320    3D                              

 12 12  0  0  0  0  0  0  0  0999 V2000
    0.2006    7.7606    2.4991 O      0
    1.2564    7.4223    0.4118 C      0
    2.0630    7.7829    0.7022 H      0
    0.1083    7.3757    1.3325 C      0
   -1.1556    6.8236    0.8298 C      0
   -1.8990    6.7991    1.3885 H      0
    1.1556    6.9564   -0.8298 C      0
   -0.1083    6.4043   -1.3325 C      0
   -0.2006    6.0194   -2.4991 O      0
   -1.2564    6.3577   -0.4118 C      0
   -2.0630    5.9971   -0.7022 H      0
    1.8990    6.9809   -1.3885 H      0
  1  4  2
  2  3  1
  4  2  1
  5  4  1
  6  5  1
  7  2  2
  8  7  1
  9  8  2
 10  5  2
 11 10  1
 12  7  1
  8 10  1
M  END
$$$$
