02
  --CCDC--041320    3D                              

 12 11  0  0  0  0  0  0  0  0999 V2000
   -3.1096    0.4069    4.0574 C      0
   -2.0793   -0.1128    3.6459 O      0
   -3.6007    0.2085    5.2616 O      0
   -3.1345   -0.3249    5.7405 H      0
   -3.9037    1.3213    3.1930 C      0
   -3.5172    1.5115    2.3422 H      0
   -5.0742    1.8366    3.5765 C      0
   -5.8682    2.7510    2.7121 C      0
   -6.8986    3.2707    3.1236 O      0
   -5.3772    2.9494    1.5078 O      0
   -5.8434    3.4828    1.0290 H      0
   -5.4606    1.6464    4.4272 H      0
  1  2  2
  3  1  1
  4  3  1
  5  1  1
  6  5  1
  7  5  2
  8  7  1
  9  8  2
 10  8  1
 11 10  1
 12  7  1
M  END
$$$$
