02
  --CCDC--041320    3D                              

 19 19  0  0  0  0  0  0  0  0999 V2000
    9.8443    8.5069    9.5267 C      0
    9.6052    8.6403   10.9363 C      0
    9.7789    7.6764   11.8829 C      0
    9.6406    7.8573   12.7843 H      0
   10.1713    6.4115   11.4531 C      0
   10.3821    6.1497   10.1241 C      0
   10.6218    5.2937    9.8523 H      0
   10.2391    7.1543    9.1894 C      0
   10.6151    6.8247    7.8206 N      0
   10.3780    5.3778   12.4545 N      0
    9.2243    9.9639   11.4413 N      0
    9.7580    9.4747    8.7446 O      0
   10.9841    7.7307    7.0803 O      0
   10.5866    5.6422    7.4692 O      0
   10.8750    4.3144   12.0860 O      0
   10.0698    5.6183   13.6181 O      0
    9.7565   10.3558   12.4878 O      0
    8.3925   10.6215   10.8214 O      0
    9.2644    9.4390    7.6927 H      0
  1  2  4
  2  3  4
  3  4  1
  5  3  4
  6  5  4
  7  6  1
  8  1  4
  9  8  1
 10  5  1
 11  2  1
 12  1  1
 13  9  2
 14  9  2
 15 10  2
 16 10  2
 17 11  2
 18 11  2
 19 12  1
  6  8  4
M  END
$$$$
