02
  --CCDC--041320    3D                              

 20 20  0  0  0  0  0  0  0  0999 V2000
    6.9738   19.1807    7.6358 O      0
    7.5949   21.3268    7.8358 O      0
    4.5129   18.9957    5.0655 O      0
    4.1074   19.6385    4.5656 H      0
    5.6104   21.9179    5.8158 O      0
    5.1294   21.9470    4.9827 H      0
    7.9356   17.9786    5.2897 O      0
    7.4616   18.3028    4.4499 H      0
    8.0651   15.2670    6.2324 O      0
    8.9710   15.5727    5.9896 H      0
    6.0738   18.4263    6.7927 C      0
    5.4111   17.9985    7.3402 H      0
    5.4185   19.4610    5.9386 C      0
    5.8894   20.6708    6.2495 C      0
    6.8951   20.5173    7.2883 C      0
    6.8561   17.3743    6.0177 C      0
    6.2648   16.9398    5.3987 H      0
    7.4391   16.3305    6.9432 C      0
    6.7393   15.9700    7.4930 H      0
    8.0815   16.7525    7.5183 H      0
  1 11  1
  2 15  2
  3  4  1
  5  6  1
  7  8  1
  9 10  1
 11 12  1
 13  3  1
 14  5  1
 15  1  1
 16  7  1
 17 16  1
 18  9  1
 19 18  1
 20 18  1
 11 13  1
 11 16  1
 13 14  2
 14 15  1
 16 18  1
M  END
$$$$
