01
  --CCDC--041320    3D                              

 14 15  0  0  0  0  0  0  0  0999 V2000
    3.8536    5.4216    6.4465 Br     0
   -0.0184    7.9148    1.7187 Br     0
    2.9350    7.2918    0.5428 O      0
    4.4383    6.4265    2.0252 O      0
    3.1070    6.9273    1.6968 N      0
    4.4614    6.0544    3.3495 N      0
    2.3979    6.8484    2.7946 C      0
    3.2411    6.2925    3.8041 C      0
    2.7303    6.1179    5.1102 C      0
    1.4516    6.4663    5.3520 C      0
    1.0981    6.3630    6.2277 H      0
    0.6205    6.9855    4.3211 C      0
   -0.2842    7.1938    4.5233 H      0
    1.0680    7.1930    3.0713 C      0
  1  9  1
  2 14  1
  3  5  1
  4  5  1
  5  7  2
  6  4  1
  7  8  1
  8  6  2
  9  8  1
 10  9  2
 11 10  1
 12 10  1
 13 12  1
 14  7  1
 12 14  2
M  END
$$$$
