01
  --CCDC--041320    3D                              

 41 46  0  0  0  0  0  0  0  0999 V2000
    4.9112    3.9426   14.3499 C      0
    3.9871    4.9638   14.4924 C      0
    4.3774    6.2862   14.4066 C      0
    5.6971    6.6153   14.1977 C      0
    8.9006    6.7790   13.7216 C      0
   10.2499    6.5828   13.5921 C      0
   10.7825    5.3114   13.6212 C      0
    9.9750    4.2114   13.8123 C      0
    7.4749    3.4297   14.0843 C      0
    6.2411    4.2547   14.0908 C      0
    6.6226    5.6018   14.0406 C      0
    8.6061    4.3844   13.9953 C      0
    8.0801    5.6791   13.9176 C      0
    5.5005    1.2297   12.7776 C      0
    4.8735    0.1066   12.2740 C      0
    5.3414   -1.1479   12.5801 C      0
    6.4646   -1.3193   13.3751 C      0
    9.1038   -1.0552   15.2745 C      0
   10.1902   -0.6736   16.0080 C      0
   10.4718    0.6566   16.2121 C      0
    9.6942    1.6515   15.6421 C      0
    7.5556    2.0763   14.1718 C      0
    6.5955    1.0861   13.6245 C      0
    7.0836   -0.1993   13.8884 C      0
    8.6293    1.2807   14.8163 C      0
    8.3253   -0.0834   14.6770 C      0
    4.5794    3.0280   14.4762 H      0
    3.0728    4.7583   14.7353 H      0
    3.7002    6.9829   14.5248 H      0
    5.9559    7.5391   14.0876 H      0
   10.8718    7.3228   13.4561 H      0
   11.6523    5.1600   13.5047 H      0
   10.3745    3.3679   13.7961 H      0
    5.1832    2.1165   12.5007 H      0
    4.0731    0.2626   11.6263 H      0
    4.9393   -1.8539   12.2578 H      0
    6.7268   -2.2865   13.5047 H      0
    8.8851   -2.0393   15.1563 H      0
   10.7912   -1.3750   16.4679 H      0
   11.1632    0.9115   16.6784 H      0
    9.9004    2.6418   15.7230 H      0
  1  2  4
  2  3  4
  3  4  4
  4 11  4
  5  6  4
  6  7  4
  7  8  4
  8 12  4
  9 10  1
 10  1  4
 11 10  4
 12  9  1
 13  5  4
 14 15  4
 15 16  4
 16 17  4
 17 24  4
 18 19  4
 19 20  4
 20 21  4
 21 25  4
 22  9  2
 23 14  4
 24 23  4
 25 22  1
 26 18  4
 27  1  1
 28  2  1
 29  3  1
 30  4  1
 31  6  1
 32  7  1
 33  8  1
 34 14  1
 35 15  1
 36 16  1
 37 17  1
 38 18  1
 39 19  1
 40 20  1
 41 21  1
 11 13  1
 12 13  4
 22 23  1
 24 26  1
 25 26  4
M  END
$$$$
