01
  --CCDC--041320    3D                              

 33 34  0  0  0  0  0  0  0  0999 V2000
    6.6389   -1.9210    1.1819 O      0
    6.3226   -2.6705    0.9743 H      0
    5.1904   -2.1354    2.8673 O      0
    5.1729   -0.2549    4.7612 N      0
    5.0084   -1.0345    4.5909 H      0
    6.5043   -0.1473    2.7250 C      0
    6.0202    0.4343    3.9262 C      0
    6.4511    1.7366    4.2514 C      0
    6.1328    2.1495    5.0453 H      0
    7.3233    2.4172    3.4392 C      0
    7.5892    3.2980    3.6745 H      0
    7.8256    1.8393    2.2759 C      0
    8.4431    2.3105    1.7296 H      0
    7.4094    0.5703    1.9333 C      0
    7.7456    0.1725    1.1392 H      0
    6.0462   -1.4811    2.2800 C      0
    4.5672    0.3359    5.9160 C      0
    3.2758    0.8666    5.8360 C      0
    2.6997    1.4250    6.9921 C      0
    3.4292    1.4371    8.1770 C      0
    3.0390    1.8085    8.9602 H      0
    4.7127    0.9181    8.2389 C      0
    5.1989    0.9434    9.0546 H      0
    5.2835    0.3623    7.1064 C      0
    6.1614    0.0002    7.1425 H      0
    2.5159    0.8688    4.5369 C      0
    2.2923    1.7906    4.2900 H      0
    1.6917    0.3488    4.6400 H      0
    3.0692    0.4677    3.8343 H      0
    1.3204    2.0326    6.9424 C      0
    1.3249    2.8028    6.3369 H      0
    1.0592    2.3239    7.8411 H      0
    0.6813    1.3651    6.6176 H      0
  1  2  1
  3 16  2
  4  5  1
  6  7  4
  7  4  1
  8  7  4
  9  8  1
 10  8  4
 11 10  1
 12 10  4
 13 12  1
 14  6  4
 15 14  1
 16  1  1
 17  4  1
 18 17  4
 19 18  4
 20 19  4
 21 20  1
 22 20  4
 23 22  1
 24 17  4
 25 24  1
 26 18  1
 27 26  1
 28 26  1
 29 26  1
 30 19  1
 31 30  1
 32 30  1
 33 30  1
  6 16  1
 12 14  4
 22 24  4
M  END
$$$$
