01
  --CCDC--041420    3D                              

 28 29  0  0  0  0  0  0  0  0999 V2000
    0.8257    2.0891    6.6264 S      0
    0.4040    2.6920    9.4730 S      0
    4.3011    3.6660    6.5569 O      0
    2.6137    3.2880    8.0693 N      0
    2.3194    2.5410    5.8628 C      0
    3.2128    3.2321    6.8262 C      0
    1.3534    2.7457    8.1497 C      0
    3.2738    3.9543    9.1987 C      0
    3.9635    2.9817   10.1036 C      0
    2.6126    4.4488    9.7080 H      0
    3.9236    4.5889    8.8594 H      0
    4.4032    3.4588   10.8113 H      0
    4.6120    2.4826    9.6026 H      0
    3.3162    2.3793   10.4783 H      0
    4.1365    2.7866    3.8112 S      0
    4.5583    2.1837    0.9646 S      0
    0.6612    1.2097    3.8807 O      0
    2.3485    1.5877    2.3683 N      0
    2.6428    2.3347    4.5748 C      0
    1.7495    1.6436    3.6114 C      0
    3.6088    2.1300    2.2879 C      0
    1.6884    0.9214    1.2389 C      0
    0.9987    1.8939    0.3340 C      0
    2.3496    0.4269    0.7296 H      0
    1.0386    0.2868    1.5782 H      0
    0.5591    1.4169   -0.3737 H      0
    0.3502    2.3931    0.8350 H      0
    1.6460    2.4964   -0.0407 H      0
  1  5  1
  2  7  2
  3  6  2
  4  6  1
  5  6  1
  7  1  1
  8  4  1
  9  8  1
 10  8  1
 11  8  1
 12  9  1
 13  9  1
 14  9  1
 15 19  1
 16 21  2
 17 20  2
 18 20  1
 19  5  2
 20 19  1
 21 15  1
 22 18  1
 23 22  1
 24 22  1
 25 22  1
 26 23  1
 27 23  1
 28 23  1
  4  7  1
 18 21  1
M  END
$$$$
