01
  --CCDC--041320    3D                              

 12 12  0  0  0  0  0  0  0  0999 V2000
    1.8913    7.4381   22.1470 C      0
    1.2675    7.3723   23.4982 C      0
    0.0560    7.8122   23.7434 C      0
   -0.2991    7.7418   24.6203 H      0
   -0.7587    8.4118   22.6781 C      0
   -0.1590    8.4981   21.3053 C      0
   -0.6580    8.8790   20.5922 H      0
    1.0653    8.0431   21.0891 C      0
    1.4272    8.1097   20.2131 H      0
    2.9915    7.0119   21.9332 O      0
   -1.8959    8.7495   22.9287 O      0
    2.2403    6.6789   24.7236 Cl     0
  1  2  1
  2  3  2
  3  4  1
  5  3  1
  6  5  1
  7  6  1
  8  1  1
  9  8  1
 10  1  2
 11  5  2
 12  2  1
  6  8  2
M  END
$$$$
