01
  --CCDC--041320    3D                              

 22 23  0  0  0  0  0  0  0  0999 V2000
    5.5692    1.8207    3.1125 O      0
    5.9391    4.4103    4.4255 Cl     0
    5.0020    1.0101    0.3566 Cl     0
    5.6427    4.9655    0.4561 C      0
    5.8294    5.2177    1.8852 C      0
    5.7635    4.1305    2.7241 C      0
    5.5354    2.7812    2.2901 C      0
    5.3381    2.6006    0.8555 C      0
    5.4067    3.6338    0.0028 C      0
    5.9934    6.2002    2.2749 H      0
    5.3014    3.4586   -1.0310 H      0
    5.7873    6.0493   -0.4561 C      0
    5.6006    5.7971   -1.8852 C      0
    6.0233    7.3810   -0.0028 C      0
    5.6664    6.8842   -2.7241 C      0
    5.4365    4.8145   -2.2749 H      0
    6.0919    8.4142   -0.8555 C      0
    6.1285    7.5561    1.0310 H      0
    5.4908    6.6044   -4.4255 Cl     0
    5.8945    8.2335   -2.2901 C      0
    6.4280   10.0047   -0.3566 Cl     0
    5.8608    9.1940   -3.1125 O      0
  1  7  2
  2  6  1
  3  8  1
  4  5  1
  5  6  2
  6  7  1
  7  8  1
  8  9  2
  9  4  1
 10  5  1
 11  9  1
 12  4  2
 13 12  1
 14 12  1
 15 13  2
 16 13  1
 17 14  2
 18 14  1
 19 15  1
 20 15  1
 21 17  1
 22 20  2
 17 20  1
M  END
$$$$
