01
  --CCDC--041320    3D                              

 23 24  0  0  0  0  0  0  0  0999 V2000
    3.8094    1.3210   10.4348 F      0
    8.2871    3.7999    8.8866 O      0
    6.0100    3.7263    8.9287 N      0
    7.2662    2.1931   10.1400 N      0
    4.8088    5.7251    8.6862 O      0
    6.2907    0.5696   11.4180 O      0
    6.1776    1.4940   10.6255 C      0
    7.2456    3.2714    9.2908 C      0
    4.8628    3.0717    9.3078 C      0
    4.0177    3.3920    9.0128 H      0
    4.9257    1.9886   10.0883 C      0
    5.9215    5.0144    8.1955 C      0
    6.7534    5.5458    8.3560 H      0
    5.7182    4.8285    6.6924 C      0
    6.5737    4.9217    6.2021 H      0
    5.3246    3.9427    6.4916 H      0
    4.7597    5.9449    6.3357 C      0
    4.2155    5.7160    5.5414 H      0
    5.2382    6.7952    6.1722 H      0
    3.9054    6.0195    7.5927 C      0
    3.5139    6.9231    7.6953 H      0
    3.1723    5.3556    7.5575 H      0
    8.0306    1.9691   10.3981 H      0
  1 11  1
  2  8  2
  3  8  1
  4  7  1
  5 12  1
  6  7  2
  7 11  1
  8  4  1
  9  3  1
 10  9  1
 11  9  2
 12  3  1
 13 12  1
 14 12  1
 15 14  1
 16 14  1
 17 14  1
 18 17  1
 19 17  1
 20  5  1
 21 20  1
 22 20  1
 23  4  1
 17 20  1
M  END
$$$$
