01
  --CCDC--041320    3D                              

 12 12  0  0  0  0  0  0  0  0999 V2000
    4.6571    4.0487    1.6452 F      0
    4.7570    1.8334    0.0787 F      0
    4.7184   -0.6223    1.1970 F      0
    4.6017   -0.8745    3.9023 F      0
    4.5223    1.3423    5.4772 F      0
    4.5364    3.7917    4.3505 F      0
    4.6498    2.8413    2.1940 C      0
    4.6978    1.7220    1.4053 C      0
    4.6725    0.4780    1.9772 C      0
    4.6152    0.3447    3.3450 C      0
    4.5747    1.4666    4.1324 C      0
    4.5841    2.7115    3.5691 C      0
  1  7  1
  2  8  1
  3  9  1
  4 10  1
  5 11  1
  6 12  1
  7  8  4
  8  9  4
  9 10  4
 10 11  4
 11 12  4
 12  7  4
M  END
$$$$
