01
  --CCDC--041420    3D                              

 12 12  0  0  0  0  0  0  0  0999 V2000
    2.2129    4.0638    4.9840 Br     0
    4.1337    0.0346    1.5043 Br     0
    5.3879    5.4707    0.5059 Br     0
    3.6594    5.8123    2.9640 F      0
    5.3387    2.4603    0.1408 F      0
    2.7481    1.2993    3.8858 F      0
    3.7878    4.5173    2.6577 C      0
    4.6283    2.8200    1.2188 C      0
    3.3215    2.2306    3.1147 C      0
    3.1909    3.5638    3.4626 C      0
    4.0250    1.8380    1.9906 C      0
    4.5203    4.1631    1.5357 C      0
  1 10  1
  2 11  1
  3 12  1
  4  7  1
  5  8  1
  6  9  1
  7 10  4
  8 11  4
  9 10  4
 11  9  4
 12  7  4
  8 12  4
M  END
$$$$
