03
  --CCDC--041320    3D                              

 20 20  0  0  0  0  0  0  0  0999 V2000
    1.1081    3.4960   -0.3874 C      0
    1.3085    5.7776    0.3907 C      0
    0.3086    2.4528   -0.8021 C      0
    2.7318    5.6119    0.5348 C      0
    2.5322    3.3388   -0.2704 C      0
    0.8394    1.1516   -1.0501 C      0
    0.5367    4.7778   -0.0429 C      0
    3.3026    4.3370    0.1742 C      0
    1.2403    0.0984   -1.2257 N      0
    3.5326    6.6274    1.0000 C      0
   -1.1082    2.5830   -0.9547 C      0
    3.0365    7.9399    1.2560 C      0
    4.9311    6.4395    1.2335 C      0
   -2.2373    2.6831   -1.0932 N      0
    2.6573    9.0081    1.4369 N      0
    6.0406    6.2755    1.4420 N      0
    4.2510    4.1996    0.2486 H      0
   -0.3999    4.8762   -0.1214 H      0
    0.9087    6.6018    0.6597 H      0
    2.9808    2.4535   -0.5364 H      0
  1  3  2
  2  4  1
  3  6  1
  4  8  1
  5  1  1
  6  9  3
  7  1  1
  8  5  2
 10  4  2
 11  3  1
 12 10  1
 13 10  1
 14 11  3
 15 12  3
 16 13  3
 17  8  1
 18  7  1
 19  2  1
 20  5  1
  2  7  2
M  END
$$$$
