02
  --CCDC--041320    3D                              

 16 16  0  0  0  0  0  0  0  0999 V2000
    1.0918   -2.5674    7.0371 O      0
   -2.2263   -1.7224   12.3299 O      0
    0.7477   -1.4945    7.5461 C      0
   -0.0749   -1.4976    8.7952 C      0
   -0.5269   -2.7113    9.2776 C      0
   -0.3331   -3.4904    8.8075 H      0
   -1.2602   -2.7857   10.4454 C      0
   -1.5654   -3.6083   10.7537 H      0
   -1.5366   -1.6402   11.1496 C      0
   -0.4010   -0.3568    9.4976 C      0
   -0.1217    0.4711    9.1782 H      0
   -1.1356   -0.4203   10.6678 C      0
   -1.3555    0.3587   11.1245 H      0
    1.0834   -0.3291    7.0164 N      0
    1.5827   -0.3822    6.3226 H      0
    0.9097    0.4448    7.4285 H      0
  1  3  2
  2  9  1
  3  4  1
  4  5  4
  5  6  1
  7  5  4
  8  7  1
  9  7  4
 10  4  4
 11 10  1
 12  9  4
 13 12  1
 14  3  1
 15 14  1
 16 14  1
 10 12  4
M  END
$$$$
