01
  --CCDC--041320    3D                              

 15 15  0  0  0  0  0  0  0  0999 V2000
    5.8579   28.0211   12.2110 C      0
    6.0976   27.5957   13.5001 C      0
    6.9832   27.5835   13.8438 H      0
    5.0404   27.1895   14.2844 C      0
    5.2216   26.8848   15.1660 H      0
    3.5429   27.6323   12.6254 C      0
    2.6455   27.6551   12.3153 H      0
    4.5505   28.0464   11.7719 C      0
    4.3450   28.3437   10.8943 H      0
    6.9497   28.4821   11.2756 C      0
    8.2011   28.2494   11.6592 N      0
    8.8720   28.5036   11.1500 H      0
    8.3593   27.8421   12.4228 H      0
    3.7803   27.2031   13.8665 N      0
    6.6561   29.0485   10.2190 O      0
  1  2  4
  2  3  1
  4  2  4
  5  4  1
  6  7  1
  8  1  4
  9  8  1
 10  1  1
 11 10  1
 12 11  1
 13 11  1
 14  4  4
 15 10  2
  6  8  4
  6 14  4
M  END
$$$$
