02
  --CCDC--041320    3D                              

 14 14  0  0  0  0  0  0  0  0999 V2000
    4.8412    2.9166    5.5071 O      5
    7.5904    4.2805    0.1853 O      0
    7.6243    6.2170    1.1231 O      0
    5.4414    3.4137    4.4722 N      3
    7.3418    5.0286    1.1118 N      0
    5.7227    4.7368    4.4042 C      0
    6.3189    5.2865    3.3302 C      0
    6.6654    4.4773    2.2815 C      0
    6.4070    3.1234    2.3332 C      0
    5.7940    2.6209    3.4361 C      0
    5.4874    5.1561    5.1428 H      0
    6.5463    6.1521    3.3403 H      0
    6.6200    2.5487    1.5630 H      0
    5.5689    1.7084    3.5294 H      0
  1  4  1
  2  5  2
  3  5  2
  4  6  4
  5  8  1
  6  7  4
  7  8  4
  8  9  4
  9 10  4
 10  4  4
 11  6  1
 12  7  1
 13  9  1
 14 10  1
M  CHG  2   1  -1   4   1
M  END
$$$$
