01
  --CCDC--041320    3D                              

  8  7  0  0  0  0  0  0  0  0999 V2000
   -1.0579    0.0768    8.1196 O      0
   -1.8279    1.7151    9.4235 O      0
   -1.6572    0.5556    9.1684 C      0
   -0.7585    0.8145    7.5437 H      0
   -2.7450   -0.0768   11.1640 O      0
   -1.9750   -1.7151    9.8601 O      0
   -2.1457   -0.5556   10.1152 C      0
   -3.0444   -0.8145   11.7399 H      0
  1  3  1
  2  3  2
  3  7  1
  4  1  1
  5  7  1
  6  7  2
  8  5  1
M  END
$$$$
